Version 4
SHEET 1 1364 772
WIRE 640 -32 640 -64
WIRE 144 96 16 96
WIRE 272 96 144 96
WIRE 304 96 272 96
WIRE 496 96 384 96
WIRE 640 96 640 48
WIRE 640 96 576 96
WIRE 144 112 144 96
WIRE 640 176 640 96
WIRE 272 208 272 96
WIRE 320 208 272 208
WIRE 432 208 384 208
WIRE 576 208 544 208
WIRE 272 224 272 208
WIRE 832 240 768 240
WIRE 928 240 896 240
WIRE 944 240 928 240
WIRE -176 272 -224 272
WIRE 16 272 16 96
WIRE 16 272 -96 272
WIRE 144 272 144 192
WIRE 208 272 144 272
WIRE 512 272 512 208
WIRE 576 272 512 272
WIRE 144 304 144 272
WIRE 672 336 672 288
WIRE 16 352 16 272
WIRE 80 352 16 352
WIRE 704 400 704 272
WIRE 704 400 672 400
WIRE 736 416 736 256
WIRE 16 448 16 352
WIRE 544 496 544 208
WIRE 576 496 544 496
WIRE 640 496 640 304
WIRE 640 496 576 496
WIRE 736 496 736 480
WIRE 736 496 640 496
WIRE 576 528 576 496
WIRE 16 544 16 512
WIRE 144 544 144 400
WIRE 144 544 16 544
WIRE 272 544 272 320
WIRE 272 544 144 544
WIRE 144 608 144 544
FLAG 144 608 0
FLAG 576 528 0
FLAG 640 -64 0
FLAG -224 272 0
FLAG 944 320 0
FLAG 928 240 OUT
SYMBOL ind 128 96 R0
SYMATTR InstName L1
SYMATTR Value 0.15µ
SYMBOL res 400 80 R90
WINDOW 0 0 56 VBottom 2
WINDOW 3 32 56 VTop 2
SYMATTR InstName R1
SYMATTR Value 4,7k
SYMBOL npn3 80 304 R0
SYMATTR InstName Q2
SYMATTR Value BF199
SYMBOL npn3 208 224 R0
SYMATTR InstName Q1
SYMATTR Value BF199
SYMBOL cap 384 192 R90
WINDOW 0 0 32 VBottom 2
WINDOW 3 32 32 VTop 2
SYMATTR InstName C1
SYMATTR Value 100n
SYMBOL res 528 192 R90
WINDOW 0 0 56 VBottom 2
WINDOW 3 32 56 VTop 2
SYMATTR InstName R3
SYMATTR Value 10k
SYMBOL cap 656 336 R0
SYMATTR InstName C3
SYMATTR Value 10µ
SYMBOL cap 752 480 R180
WINDOW 0 24 56 Left 2
WINDOW 3 24 8 Left 2
SYMATTR InstName C4
SYMATTR Value 100n
SYMBOL cap 896 224 R90
WINDOW 0 0 32 VBottom 2
WINDOW 3 32 32 VTop 2
SYMATTR InstName C2
SYMATTR Value 470µ
SYMBOL voltage 640 64 R180
WINDOW 0 24 96 Left 2
WINDOW 3 24 16 Left 2
WINDOW 123 0 0 Left 0
WINDOW 39 0 0 Left 0
SYMATTR InstName V1
SYMATTR Value 5
SYMBOL cap 0 448 R0
SYMATTR InstName C5
SYMATTR Value 30p
SYMBOL LM386 640 240 R0
SYMATTR InstName U1
SYMBOL res 928 224 R0
SYMATTR InstName R4
SYMATTR Value 4
SYMBOL res 592 80 R90
WINDOW 0 0 56 VBottom 2
WINDOW 3 32 56 VTop 2
SYMATTR InstName R2
SYMATTR Value 25k
SYMBOL voltage -80 272 R90
WINDOW 0 -32 56 VBottom 2
WINDOW 3 32 56 VTop 2
WINDOW 123 0 0 Left 0
WINDOW 39 0 0 Left 0
SYMATTR InstName V2
SYMATTR Value SINE(0 10m 1k)
TEXT 0 632 Left 2 !.tran 0 20m
TEXT 0 680 Left 2 !.include "LM386.txt"
